RamaisBT_2022124950_IJAU11_--MBS-1--T--.dss
New "Line.RBT_990801" phases=2 bus1="140381609.3.4" bus2="4000990801.3.4" linecode="CABBTG01_4_1_2" length=0.01700 units=km
New "Line.RBT_990808" phases=2 bus1="140381609.2.4" bus2="4000990808.2.4" linecode="CABBTG01_4_1_2" length=0.01700 units=km
New "Line.RBT_990815" phases=2 bus1="140381609.2.4" bus2="4000990815.2.4" linecode="CABBTG01_4_1_2" length=0.01700 units=km
New "Line.RBT_990822" phases=4 bus1="140381609.1.2.3.4" bus2="4000990822.1.2.3.4" linecode="CABBTG07_4_3_4" length=0.01700 units=km
New "Line.RBT_990829" phases=2 bus1="140381609.1.4" bus2="4000990829.1.4" linecode="CABBTG01_4_1_2" length=0.01700 units=km
New "Line.RBT_990843" phases=2 bus1="714224.1.4" bus2="4000990843.1.4" linecode="CABBTG01_4_1_2" length=0.01700 units=km
New "Line.RBT_990850" phases=2 bus1="714224.1.4" bus2="4000990850.1.4" linecode="CABBTG01_4_1_2" length=0.01700 units=km
New "Line.RBT_990857" phases=2 bus1="714224.1.4" bus2="4000990857.1.4" linecode="CABBTG01_4_1_2" length=0.01700 units=km
New "Line.RBT_990864" phases=2 bus1="714224.1.4" bus2="4000990864.1.4" linecode="CABBTG01_4_1_2" length=0.01700 units=km
New "Line.RBT_990892" phases=2 bus1="714238.1.4" bus2="4000990892.1.4" linecode="CABBTG01_4_1_2" length=0.01700 units=km
New "Line.RBT_990899" phases=2 bus1="714238.1.4" bus2="4000990899.1.4" linecode="CABBTG01_4_1_2" length=0.01700 units=km
New "Line.RBT_990906" phases=2 bus1="714238.3.4" bus2="4000990906.3.4" linecode="CABBTG01_4_1_2" length=0.01700 units=km
New "Line.RBT_990920" phases=2 bus1="714238.3.4" bus2="4000990920.3.4" linecode="CABBTG01_4_1_2" length=0.01700 units=km
New "Line.RBT_990927" phases=2 bus1="714252.2.4" bus2="4000990927.2.4" linecode="CABBTG01_4_1_2" length=0.01700 units=km
New "Line.RBT_990934" phases=3 bus1="714252.1.2.4" bus2="4000990934.1.2.4" linecode="CABBTG05_4_2_3" length=0.01700 units=km
New "Line.RBT_990941" phases=2 bus1="714252.3.4" bus2="4000990941.3.4" linecode="CABBTG01_4_1_2" length=0.01700 units=km
New "Line.RBT_990948" phases=3 bus1="714280.1.2.4" bus2="4000990948.1.2.4" linecode="CABBTG05_4_2_3" length=0.01700 units=km
New "Line.RBT_990955" phases=3 bus1="714259.2.3.4" bus2="4000990955.2.3.4" linecode="CABBTG05_4_2_3" length=0.01700 units=km
New "Line.RBT_990962" phases=3 bus1="714259.2.3.4" bus2="4000990962.2.3.4" linecode="CABBTG05_4_2_3" length=0.01700 units=km
New "Line.RBT_990969" phases=2 bus1="714259.2.4" bus2="4000990969.2.4" linecode="CABBTG01_4_1_2" length=0.01700 units=km
New "Line.RBT_990976" phases=2 bus1="714259.3.4" bus2="4000990976.3.4" linecode="CABBTG01_4_1_2" length=0.01700 units=km
New "Line.RBT_990983" phases=2 bus1="714259.3.4" bus2="4000990983.3.4" linecode="CABBTG01_4_1_2" length=0.01700 units=km
New "Line.RBT_990990" phases=4 bus1="714259.1.2.3.4" bus2="4000990990.1.2.3.4" linecode="CABBTG07_4_3_4" length=0.01700 units=km
New "Line.RBT_990997" phases=4 bus1="714259.1.2.3.4" bus2="4000990997.1.2.3.4" linecode="CABBTG06_4_3_4" length=0.01700 units=km
New "Line.RBT_991004" phases=2 bus1="714266.1.4" bus2="4000991004.1.4" linecode="CABBTG01_4_1_2" length=0.01700 units=km
New "Line.RBT_991011" phases=2 bus1="714266.1.4" bus2="4000991011.1.4" linecode="CABBTG01_4_1_2" length=0.01700 units=km
New "Line.RBT_991018" phases=2 bus1="714273.2.4" bus2="4000991018.2.4" linecode="CABBTG01_4_1_2" length=0.01700 units=km
New "Line.RBT_991025" phases=3 bus1="714266.3.1.4" bus2="4000991025.3.1.4" linecode="CABBTG05_4_2_3" length=0.01700 units=km
New "Line.RBT_991032" phases=3 bus1="714266.2.3.4" bus2="4000991032.2.3.4" linecode="CABBTG05_4_2_3" length=0.01700 units=km
New "Line.RBT_991039" phases=3 bus1="714266.2.3.4" bus2="4000991039.2.3.4" linecode="CABBTG05_4_2_3" length=0.01700 units=km
New "Line.RBT_991046" phases=2 bus1="714266.2.4" bus2="4000991046.2.4" linecode="CABBTG01_4_1_2" length=0.01700 units=km
New "Line.RBT_991053" phases=2 bus1="714266.3.4" bus2="4000991053.3.4" linecode="CABBTG01_4_1_2" length=0.01700 units=km
New "Line.RBT_991060" phases=4 bus1="716121.1.2.3.4" bus2="4000991060.1.2.3.4" linecode="CABBTG07_4_3_4" length=0.01700 units=km
New "Line.RBT_991067" phases=2 bus1="714273.3.4" bus2="4000991067.3.4" linecode="CABBTG01_4_1_2" length=0.01700 units=km
New "Line.RBT_991074" phases=2 bus1="714273.1.4" bus2="4000991074.1.4" linecode="CABBTG01_4_1_2" length=0.01700 units=km
New "Line.RBT_991081" phases=2 bus1="714273.1.4" bus2="4000991081.1.4" linecode="CABBTG01_4_1_2" length=0.01700 units=km
New "Line.RBT_991088" phases=3 bus1="714273.2.3.4" bus2="4000991088.2.3.4" linecode="CABBTG05_4_2_3" length=0.01700 units=km
New "Line.RBT_991095" phases=2 bus1="714273.3.4" bus2="4000991095.3.4" linecode="CABBTG01_4_1_2" length=0.01700 units=km
New "Line.RBT_991102" phases=2 bus1="714280.1.4" bus2="4000991102.1.4" linecode="CABBTG01_4_1_2" length=0.01700 units=km
New "Line.RBT_991613" phases=2 bus1="714560.3.4" bus2="4000991613.3.4" linecode="CABBTG01_4_1_2" length=0.01700 units=km
New "Line.RBT_991620" phases=2 bus1="714560.3.4" bus2="4000991620.3.4" linecode="CABBTG01_4_1_2" length=0.01700 units=km
New "Line.RBT_991627" phases=2 bus1="714560.1.4" bus2="4000991627.1.4" linecode="CABBTG01_4_1_2" length=0.01700 units=km
New "Line.RBT_991634" phases=2 bus1="714560.1.4" bus2="4000991634.1.4" linecode="CABBTG01_4_1_2" length=0.01700 units=km
New "Line.RBT_991641" phases=2 bus1="714560.3.4" bus2="4000991641.3.4" linecode="CABBTG01_4_1_2" length=0.01700 units=km
New "Line.RBT_991648" phases=2 bus1="140381609.2.4" bus2="4000991648.2.4" linecode="CABBTG01_4_1_2" length=0.01700 units=km
New "Line.RBT_991655" phases=3 bus1="714567.2.3.4" bus2="4000991655.2.3.4" linecode="CABBTG04_4_2_3" length=0.01700 units=km
New "Line.RBT_991669" phases=2 bus1="714574.1.4" bus2="4000991669.1.4" linecode="CABBTG01_4_1_2" length=0.01700 units=km
New "Line.RBT_991676" phases=2 bus1="714581.2.4" bus2="4000991676.2.4" linecode="CABBTG01_4_1_2" length=0.01700 units=km
New "Line.RBT_991683" phases=3 bus1="714581.1.2.4" bus2="4000991683.1.2.4" linecode="CABBTG05_4_2_3" length=0.01700 units=km
New "Line.RBT_991690" phases=2 bus1="714581.2.4" bus2="4000991690.2.4" linecode="CABBTG01_4_1_2" length=0.01700 units=km
New "Line.RBT_991697" phases=2 bus1="714588.2.4" bus2="4000991697.2.4" linecode="CABBTG01_4_1_2" length=0.01700 units=km
New "Line.RBT_991704" phases=3 bus1="714588.1.2.4" bus2="4000991704.1.2.4" linecode="CABBTG04_4_2_3" length=0.01700 units=km
New "Line.RBT_991711" phases=2 bus1="714595.2.4" bus2="4000991711.2.4" linecode="CABBTG01_4_1_2" length=0.01700 units=km
New "Line.RBT_991718" phases=2 bus1="714595.1.4" bus2="4000991718.1.4" linecode="CABBTG01_4_1_2" length=0.01700 units=km
New "Line.RBT_991725" phases=2 bus1="714602.2.4" bus2="4000991725.2.4" linecode="CABBTG01_4_1_2" length=0.01700 units=km
New "Line.RBT_991732" phases=3 bus1="714602.1.2.4" bus2="4000991732.1.2.4" linecode="CABBTG05_4_2_3" length=0.01700 units=km
New "Line.RBT_991739" phases=2 bus1="714602.2.4" bus2="4000991739.2.4" linecode="CABBTG01_4_1_2" length=0.01700 units=km
New "Line.RBT_991753" phases=4 bus1="714609.1.2.3.4" bus2="4000991753.1.2.3.4" linecode="CABBTG07_4_3_4" length=0.01700 units=km
New "Line.RBT_991760" phases=3 bus1="714609.1.2.4" bus2="4000991760.1.2.4" linecode="CABBTG05_4_2_3" length=0.01700 units=km
New "Line.RBT_991767" phases=2 bus1="714616.2.4" bus2="4000991767.2.4" linecode="CABBTG01_4_1_2" length=0.01700 units=km
New "Line.RBT_991774" phases=3 bus1="714616.2.3.4" bus2="4000991774.2.3.4" linecode="CABBTG05_4_2_3" length=0.01700 units=km
New "Line.RBT_991781" phases=2 bus1="714616.3.4" bus2="4000991781.3.4" linecode="CABBTG01_4_1_2" length=0.01700 units=km
New "Line.RBT_991788" phases=2 bus1="714616.1.4" bus2="4000991788.1.4" linecode="CABBTG01_4_1_2" length=0.01700 units=km
New "Line.RBT_991795" phases=2 bus1="714623.2.4" bus2="4000991795.2.4" linecode="CABBTG01_4_1_2" length=0.01700 units=km
New "Line.RBT_991802" phases=3 bus1="714623.3.1.4" bus2="4000991802.3.1.4" linecode="CABBTG05_4_2_3" length=0.01700 units=km
New "Line.RBT_991809" phases=3 bus1="714623.3.1.4" bus2="4000991809.3.1.4" linecode="CABBTG05_4_2_3" length=0.01700 units=km
New "Line.RBT_992579" phases=2 bus1="714889.3.4" bus2="4000992579.3.4" linecode="CABBTG01_4_1_2" length=0.01700 units=km
New "Line.RBT_992586" phases=2 bus1="714889.3.4" bus2="4000992586.3.4" linecode="CABBTG01_4_1_2" length=0.01700 units=km
New "Line.RBT_992593" phases=2 bus1="714889.2.4" bus2="4000992593.2.4" linecode="CABBTG01_4_1_2" length=0.01700 units=km
New "Line.RBT_992600" phases=3 bus1="714889.2.3.4" bus2="4000992600.2.3.4" linecode="CABBTG04_4_2_3" length=0.01700 units=km
New "Line.RBT_992607" phases=3 bus1="714896.1.2.4" bus2="4000992607.1.2.4" linecode="CABBTG04_4_2_3" length=0.01700 units=km
New "Line.RBT_992614" phases=2 bus1="714896.3.4" bus2="4000992614.3.4" linecode="CABBTG01_4_1_2" length=0.01700 units=km
New "Line.RBT_992621" phases=3 bus1="714903.3.1.4" bus2="4000992621.3.1.4" linecode="CABBTG05_4_2_3" length=0.01700 units=km
New "Line.RBT_992628" phases=2 bus1="714903.1.4" bus2="4000992628.1.4" linecode="CABBTG01_4_1_2" length=0.01700 units=km
New "Line.RBT_992635" phases=2 bus1="714910.3.4" bus2="4000992635.3.4" linecode="CABBTG01_4_1_2" length=0.01700 units=km
New "Line.RBT_992642" phases=2 bus1="714952.1.4" bus2="4000992642.1.4" linecode="CABBTG01_4_1_2" length=0.01700 units=km
New "Line.RBT_992649" phases=2 bus1="714917.2.4" bus2="4000992649.2.4" linecode="CABBTG01_4_1_2" length=0.01700 units=km
New "Line.RBT_992656" phases=2 bus1="714917.3.4" bus2="4000992656.3.4" linecode="CABBTG01_4_1_2" length=0.01700 units=km
New "Line.RBT_992663" phases=2 bus1="714924.1.4" bus2="4000992663.1.4" linecode="CABBTG01_4_1_2" length=0.01700 units=km
New "Line.RBT_992670" phases=2 bus1="714924.1.4" bus2="4000992670.1.4" linecode="CABBTG01_4_1_2" length=0.01700 units=km
New "Line.RBT_992677" phases=2 bus1="714924.2.4" bus2="4000992677.2.4" linecode="CABBTG01_4_1_2" length=0.01700 units=km
New "Line.RBT_992684" phases=2 bus1="714931.1.4" bus2="4000992684.1.4" linecode="CABBTG01_4_1_2" length=0.01700 units=km
New "Line.RBT_992698" phases=2 bus1="714931.2.4" bus2="4000992698.2.4" linecode="CABBTG01_4_1_2" length=0.01700 units=km
New "Line.RBT_992705" phases=2 bus1="714931.3.4" bus2="4000992705.3.4" linecode="CABBTG01_4_1_2" length=0.01700 units=km
New "Line.RBT_992712" phases=3 bus1="714931.1.2.4" bus2="4000992712.1.2.4" linecode="CABBTG05_4_2_3" length=0.01700 units=km
New "Line.RBT_992719" phases=2 bus1="714931.1.4" bus2="4000992719.1.4" linecode="CABBTG01_4_1_2" length=0.01700 units=km
New "Line.RBT_992726" phases=2 bus1="714931.1.4" bus2="4000992726.1.4" linecode="CABBTG01_4_1_2" length=0.01700 units=km
New "Line.RBT_992733" phases=2 bus1="714931.2.4" bus2="4000992733.2.4" linecode="CABBTG01_4_1_2" length=0.01700 units=km
New "Line.RBT_992740" phases=3 bus1="714938.3.1.4" bus2="4000992740.3.1.4" linecode="CABBTG04_4_2_3" length=0.01700 units=km
New "Line.RBT_992747" phases=2 bus1="714938.3.4" bus2="4000992747.3.4" linecode="CABBTG01_4_1_2" length=0.01700 units=km
New "Line.RBT_992754" phases=2 bus1="714938.2.4" bus2="4000992754.2.4" linecode="CABBTG01_4_1_2" length=0.01700 units=km
New "Line.RBT_992761" phases=2 bus1="714945.1.4" bus2="4000992761.1.4" linecode="CABBTG01_4_1_2" length=0.01700 units=km
New "Line.RBT_992768" phases=2 bus1="714945.1.4" bus2="4000992768.1.4" linecode="CABBTG01_4_1_2" length=0.01700 units=km
New "Line.RBT_992775" phases=4 bus1="714945.1.2.3.4" bus2="4000992775.1.2.3.4" linecode="CABBTG06_4_3_4" length=0.01700 units=km
New "Line.RBT_992782" phases=2 bus1="714952.2.4" bus2="4000992782.2.4" linecode="CABBTG01_4_1_2" length=0.01700 units=km
New "Line.RBT_992789" phases=4 bus1="714952.1.2.3.4" bus2="4000992789.1.2.3.4" linecode="CABBTG07_4_3_4" length=0.01700 units=km
New "Line.RBT_992796" phases=2 bus1="714952.1.4" bus2="4000992796.1.4" linecode="CABBTG01_4_1_2" length=0.01700 units=km
New "Line.RBT_992803" phases=2 bus1="714959.3.4" bus2="4000992803.3.4" linecode="CABBTG01_4_1_2" length=0.01700 units=km
New "Line.RBT_992810" phases=2 bus1="714966.2.4" bus2="4000992810.2.4" linecode="CABBTG01_4_1_2" length=0.01700 units=km
New "Line.RBT_992817" phases=2 bus1="714966.2.4" bus2="4000992817.2.4" linecode="CABBTG01_4_1_2" length=0.01700 units=km
New "Line.RBT_992824" phases=4 bus1="714973.1.2.3.4" bus2="4000992824.1.2.3.4" linecode="CABBTG07_4_3_4" length=0.01700 units=km
New "Line.RBT_992831" phases=2 bus1="714980.3.4" bus2="4000992831.3.4" linecode="CABBTG01_4_1_2" length=0.01700 units=km
New "Line.RBT_992838" phases=2 bus1="714987.3.4" bus2="4000992838.3.4" linecode="CABBTG01_4_1_2" length=0.01700 units=km
New "Line.RBT_992845" phases=2 bus1="714987.3.4" bus2="4000992845.3.4" linecode="CABBTG01_4_1_2" length=0.01700 units=km
New "Line.RBT_992852" phases=2 bus1="714987.1.4" bus2="4000992852.1.4" linecode="CABBTG01_4_1_2" length=0.01700 units=km
New "Line.RBT_992859" phases=2 bus1="714994.2.4" bus2="4000992859.2.4" linecode="CABBTG01_4_1_2" length=0.01700 units=km
New "Line.RBT_992866" phases=2 bus1="714994.2.4" bus2="4000992866.2.4" linecode="CABBTG01_4_1_2" length=0.01700 units=km
New "Line.RBT_992873" phases=2 bus1="714994.3.4" bus2="4000992873.3.4" linecode="CABBTG01_4_1_2" length=0.01700 units=km
New "Line.RBT_992880" phases=4 bus1="714994.1.2.3.4" bus2="4000992880.1.2.3.4" linecode="CABBTG07_4_3_4" length=0.01700 units=km
New "Line.RBT_992887" phases=2 bus1="715001.1.4" bus2="4000992887.1.4" linecode="CABBTG01_4_1_2" length=0.01700 units=km
New "Line.RBT_994224" phases=2 bus1="715582.1.4" bus2="4000994224.1.4" linecode="CABBTG01_4_1_2" length=0.01700 units=km
New "Line.RBT_994231" phases=2 bus1="715582.3.4" bus2="4000994231.3.4" linecode="CABBTG01_4_1_2" length=0.01700 units=km
New "Line.RBT_994238" phases=2 bus1="715589.3.4" bus2="4000994238.3.4" linecode="CABBTG01_4_1_2" length=0.01700 units=km
New "Line.RBT_994245" phases=2 bus1="715589.1.4" bus2="4000994245.1.4" linecode="CABBTG01_4_1_2" length=0.01700 units=km
New "Line.RBT_994252" phases=3 bus1="715589.1.2.4" bus2="4000994252.1.2.4" linecode="CABBTG05_4_2_3" length=0.01700 units=km
New "Line.RBT_994259" phases=2 bus1="715589.2.4" bus2="4000994259.2.4" linecode="CABBTG01_4_1_2" length=0.01700 units=km
New "Line.RBT_994266" phases=2 bus1="715596.2.4" bus2="4000994266.2.4" linecode="CABBTG01_4_1_2" length=0.01700 units=km
New "Line.RBT_994273" phases=2 bus1="715596.2.4" bus2="4000994273.2.4" linecode="CABBTG01_4_1_2" length=0.01700 units=km
New "Line.RBT_994280" phases=3 bus1="715596.1.2.4" bus2="4000994280.1.2.4" linecode="CABBTG05_4_2_3" length=0.01700 units=km
New "Line.RBT_994287" phases=2 bus1="715596.3.4" bus2="4000994287.3.4" linecode="CABBTG01_4_1_2" length=0.01700 units=km
New "Line.RBT_994294" phases=2 bus1="715610.1.4" bus2="4000994294.1.4" linecode="CABBTG01_4_1_2" length=0.01700 units=km
New "Line.RBT_994301" phases=3 bus1="715610.1.2.4" bus2="4000994301.1.2.4" linecode="CABBTG05_4_2_3" length=0.01700 units=km
New "Line.RBT_994308" phases=2 bus1="715617.1.4" bus2="4000994308.1.4" linecode="CABBTG01_4_1_2" length=0.01700 units=km
New "Line.RBT_994315" phases=2 bus1="715617.2.4" bus2="4000994315.2.4" linecode="CABBTG01_4_1_2" length=0.01700 units=km
New "Line.RBT_994322" phases=2 bus1="715617.3.4" bus2="4000994322.3.4" linecode="CABBTG01_4_1_2" length=0.01700 units=km
New "Line.RBT_994329" phases=3 bus1="715617.2.3.4" bus2="4000994329.2.3.4" linecode="CABBTG04_4_2_3" length=0.01700 units=km
New "Line.RBT_994336" phases=2 bus1="715624.1.4" bus2="4000994336.1.4" linecode="CABBTG01_4_1_2" length=0.01700 units=km
New "Line.RBT_994343" phases=2 bus1="715624.2.4" bus2="4000994343.2.4" linecode="CABBTG01_4_1_2" length=0.01700 units=km
New "Line.RBT_994350" phases=3 bus1="715624.3.1.4" bus2="4000994350.3.1.4" linecode="CABBTG04_4_2_3" length=0.01700 units=km
New "Line.RBT_994357" phases=2 bus1="715631.1.4" bus2="4000994357.1.4" linecode="CABBTG01_4_1_2" length=0.01700 units=km
New "Line.RBT_994364" phases=2 bus1="715631.3.4" bus2="4000994364.3.4" linecode="CABBTG01_4_1_2" length=0.01700 units=km
New "Line.RBT_994371" phases=2 bus1="715638.2.4" bus2="4000994371.2.4" linecode="CABBTG01_4_1_2" length=0.01700 units=km
New "Line.RBT_994378" phases=2 bus1="715638.1.4" bus2="4000994378.1.4" linecode="CABBTG01_4_1_2" length=0.01700 units=km
New "Line.RBT_994385" phases=2 bus1="715645.1.4" bus2="4000994385.1.4" linecode="CABBTG01_4_1_2" length=0.01700 units=km
New "Line.RBT_994392" phases=3 bus1="715645.1.2.4" bus2="4000994392.1.2.4" linecode="CABBTG05_4_2_3" length=0.01700 units=km
New "Line.RBT_994399" phases=2 bus1="715645.3.4" bus2="4000994399.3.4" linecode="CABBTG01_4_1_2" length=0.01700 units=km
New "Line.RBT_994406" phases=2 bus1="715645.2.4" bus2="4000994406.2.4" linecode="CABBTG01_4_1_2" length=0.01700 units=km
New "Line.RBT_994413" phases=3 bus1="715645.1.2.4" bus2="4000994413.1.2.4" linecode="CABBTG05_4_2_3" length=0.01700 units=km
New "Line.RBT_994420" phases=2 bus1="715645.1.4" bus2="4000994420.1.4" linecode="CABBTG01_4_1_2" length=0.01700 units=km
New "Line.RBT_994427" phases=2 bus1="715652.3.4" bus2="4000994427.3.4" linecode="CABBTG01_4_1_2" length=0.01700 units=km
New "Line.RBT_994434" phases=2 bus1="715652.3.4" bus2="4000994434.3.4" linecode="CABBTG01_4_1_2" length=0.01700 units=km
New "Line.RBT_994441" phases=2 bus1="715652.1.4" bus2="4000994441.1.4" linecode="CABBTG01_4_1_2" length=0.01700 units=km
New "Line.RBT_994448" phases=2 bus1="715652.2.4" bus2="4000994448.2.4" linecode="CABBTG01_4_1_2" length=0.01700 units=km
New "Line.RBT_994455" phases=2 bus1="715659.3.4" bus2="4000994455.3.4" linecode="CABBTG01_4_1_2" length=0.01700 units=km
New "Line.RBT_994462" phases=2 bus1="715666.3.4" bus2="4000994462.3.4" linecode="CABBTG01_4_1_2" length=0.01700 units=km
New "Line.RBT_994469" phases=2 bus1="715680.1.4" bus2="4000994469.1.4" linecode="CABBTG01_4_1_2" length=0.01700 units=km
New "Line.RBT_994476" phases=3 bus1="715666.1.2.4" bus2="4000994476.1.2.4" linecode="CABBTG04_4_2_3" length=0.01700 units=km
New "Line.RBT_994483" phases=2 bus1="715673.3.4" bus2="4000994483.3.4" linecode="CABBTG01_4_1_2" length=0.01700 units=km
New "Line.RBT_994490" phases=3 bus1="715673.2.3.4" bus2="4000994490.2.3.4" linecode="CABBTG05_4_2_3" length=0.01700 units=km
New "Line.RBT_994497" phases=2 bus1="715680.2.4" bus2="4000994497.2.4" linecode="CABBTG01_4_1_2" length=0.01700 units=km
New "Line.RBT_994504" phases=3 bus1="715673.2.3.4" bus2="4000994504.2.3.4" linecode="CABBTG05_4_2_3" length=0.01700 units=km
New "Line.RBT_994511" phases=2 bus1="715687.3.4" bus2="4000994511.3.4" linecode="CABBTG01_4_1_2" length=0.01700 units=km
New "Line.RBT_994518" phases=2 bus1="715687.1.4" bus2="4000994518.1.4" linecode="CABBTG01_4_1_2" length=0.01700 units=km
New "Line.RBT_994525" phases=2 bus1="715694.1.4" bus2="4000994525.1.4" linecode="CABBTG01_4_1_2" length=0.01700 units=km
New "Line.RBT_994532" phases=2 bus1="715694.2.4" bus2="4000994532.2.4" linecode="CABBTG01_4_1_2" length=0.01700 units=km
New "Line.RBT_994539" phases=2 bus1="715736.1.4" bus2="4000994539.1.4" linecode="CABBTG01_4_1_2" length=0.01700 units=km
New "Line.RBT_994546" phases=3 bus1="715743.1.2.4" bus2="4000994546.1.2.4" linecode="CABBTG05_4_2_3" length=0.01700 units=km
New "Line.RBT_994553" phases=2 bus1="715743.2.4" bus2="4000994553.2.4" linecode="CABBTG01_4_1_2" length=0.01700 units=km
New "Line.RBT_994560" phases=2 bus1="715743.3.4" bus2="4000994560.3.4" linecode="CABBTG01_4_1_2" length=0.01700 units=km
New "Line.RBT_994567" phases=3 bus1="715750.1.2.4" bus2="4000994567.1.2.4" linecode="CABBTG05_4_2_3" length=0.01700 units=km
New "Line.RBT_994574" phases=2 bus1="715750.1.4" bus2="4000994574.1.4" linecode="CABBTG01_4_1_2" length=0.01700 units=km
New "Line.RBT_994588" phases=2 bus1="715750.3.4" bus2="4000994588.3.4" linecode="CABBTG01_4_1_2" length=0.01700 units=km
New "Line.RBT_994595" phases=2 bus1="715757.2.4" bus2="4000994595.2.4" linecode="CABBTG01_4_1_2" length=0.01700 units=km
New "Line.RBT_994602" phases=2 bus1="715757.3.4" bus2="4000994602.3.4" linecode="CABBTG01_4_1_2" length=0.01700 units=km
New "Line.RBT_994609" phases=4 bus1="715764.1.2.3.4" bus2="4000994609.1.2.3.4" linecode="CABBTG07_4_3_4" length=0.01700 units=km
New "Line.RBT_994616" phases=4 bus1="715764.1.2.3.4" bus2="4000994616.1.2.3.4" linecode="CABBTG07_4_3_4" length=0.01700 units=km
New "Line.RBT_994623" phases=3 bus1="715764.3.1.4" bus2="4000994623.3.1.4" linecode="CABBTG05_4_2_3" length=0.01700 units=km
New "Line.RBT_994630" phases=3 bus1="715764.1.2.4" bus2="4000994630.1.2.4" linecode="CABBTG04_4_2_3" length=0.01700 units=km
New "Line.RBT_994637" phases=4 bus1="715764.1.2.3.4" bus2="4000994637.1.2.3.4" linecode="CABBTG07_4_3_4" length=0.01700 units=km
New "Line.RBT_994644" phases=2 bus1="715764.3.4" bus2="4000994644.3.4" linecode="CABBTG01_4_1_2" length=0.01700 units=km
New "Line.RBT_994651" phases=4 bus1="715764.1.2.3.4" bus2="4000994651.1.2.3.4" linecode="CABBTG07_4_3_4" length=0.01700 units=km
New "Line.RBT_994658" phases=3 bus1="715771.3.1.4" bus2="4000994658.3.1.4" linecode="CABBTG05_4_2_3" length=0.01700 units=km
New "Line.RBT_994665" phases=3 bus1="715771.1.2.4" bus2="4000994665.1.2.4" linecode="CABBTG05_4_2_3" length=0.01700 units=km
New "Line.RBT_994672" phases=3 bus1="715771.2.3.4" bus2="4000994672.2.3.4" linecode="CABBTG05_4_2_3" length=0.01700 units=km
New "Line.RBT_994679" phases=4 bus1="715771.1.2.3.4" bus2="4000994679.1.2.3.4" linecode="CABBTG07_4_3_4" length=0.01700 units=km
New "Line.RBT_994686" phases=2 bus1="715771.1.4" bus2="4000994686.1.4" linecode="CABBTG01_4_1_2" length=0.01700 units=km
New "Line.RBT_994693" phases=2 bus1="715771.3.4" bus2="4000994693.3.4" linecode="CABBTG01_4_1_2" length=0.01700 units=km
New "Line.RBT_994700" phases=2 bus1="715771.1.4" bus2="4000994700.1.4" linecode="CABBTG01_4_1_2" length=0.01700 units=km
New "Line.RBT_994707" phases=2 bus1="715778.3.4" bus2="4000994707.3.4" linecode="CABBTG01_4_1_2" length=0.01700 units=km
New "Line.RBT_994714" phases=2 bus1="715778.2.4" bus2="4000994714.2.4" linecode="CABBTG01_4_1_2" length=0.01700 units=km
New "Line.RBT_994721" phases=3 bus1="715792.2.3.4" bus2="4000994721.2.3.4" linecode="CABBTG05_4_2_3" length=0.01700 units=km
New "Line.RBT_994728" phases=3 bus1="715799.2.3.4" bus2="4000994728.2.3.4" linecode="CABBTG05_4_2_3" length=0.01700 units=km
New "Line.RBT_994735" phases=2 bus1="715799.2.4" bus2="4000994735.2.4" linecode="CABBTG01_4_1_2" length=0.01700 units=km
New "Line.RBT_994742" phases=4 bus1="715799.1.2.3.4" bus2="4000994742.1.2.3.4" linecode="CABBTG06_4_3_4" length=0.01700 units=km
New "Line.RBT_994756" phases=2 bus1="715806.2.4" bus2="4000994756.2.4" linecode="CABBTG01_4_1_2" length=0.01700 units=km
New "Line.RBT_994763" phases=3 bus1="715806.3.1.4" bus2="4000994763.3.1.4" linecode="CABBTG05_4_2_3" length=0.01700 units=km
New "Line.RBT_994770" phases=2 bus1="715806.3.4" bus2="4000994770.3.4" linecode="CABBTG01_4_1_2" length=0.01700 units=km
New "Line.RBT_994777" phases=3 bus1="715806.1.2.4" bus2="4000994777.1.2.4" linecode="CABBTG05_4_2_3" length=0.01700 units=km
New "Line.RBT_994784" phases=3 bus1="715806.1.2.4" bus2="4000994784.1.2.4" linecode="CABBTG05_4_2_3" length=0.01700 units=km
New "Line.RBT_994791" phases=3 bus1="715806.1.2.4" bus2="4000994791.1.2.4" linecode="CABBTG04_4_2_3" length=0.01700 units=km
New "Line.RBT_994798" phases=3 bus1="715813.2.3.4" bus2="4000994798.2.3.4" linecode="CABBTG05_4_2_3" length=0.01700 units=km
New "Line.RBT_994805" phases=2 bus1="715813.3.4" bus2="4000994805.3.4" linecode="CABBTG01_4_1_2" length=0.01700 units=km
New "Line.RBT_995659" phases=3 bus1="716128.1.2.4" bus2="4000995659.1.2.4" linecode="CABBTG05_4_2_3" length=0.01700 units=km
New "Line.RBT_995666" phases=2 bus1="716128.2.4" bus2="4000995666.2.4" linecode="CABBTG01_4_1_2" length=0.01700 units=km
New "Line.RBT_995673" phases=2 bus1="716128.3.4" bus2="4000995673.3.4" linecode="CABBTG01_4_1_2" length=0.01700 units=km
New "Line.RBT_995680" phases=2 bus1="716128.3.4" bus2="4000995680.3.4" linecode="CABBTG01_4_1_2" length=0.01700 units=km
New "Line.RBT_995687" phases=2 bus1="716128.1.4" bus2="4000995687.1.4" linecode="CABBTG01_4_1_2" length=0.01700 units=km
New "Line.RBT_995694" phases=2 bus1="716128.3.4" bus2="4000995694.3.4" linecode="CABBTG01_4_1_2" length=0.01700 units=km
New "Line.RBT_995701" phases=3 bus1="716128.2.3.4" bus2="4000995701.2.3.4" linecode="CABBTG05_4_2_3" length=0.01700 units=km
New "Line.RBT_995708" phases=2 bus1="716135.2.4" bus2="4000995708.2.4" linecode="CABBTG01_4_1_2" length=0.01700 units=km
...
